Results/Brussels debug 23_05/conductors/Brussels_2cond_almost_optimal/network_debug.txt
Pandapower Network Debug Info
==================================================

BUS:
          name  vn_kv type  zone  in_service   geo
0       Bus 27   15.0    b  None        True  None
1        Bus 7   15.0    b  None        True  None
2        Bus 5    0.4    b  None        True  None
3       Bus 13    0.4    b  None        True  None
4       Bus 10    0.4    b  None        True  None
5       Bus 35   15.0    b  None        True  None
6       Bus 15    0.4    b  None        True  None
7        Bus 1    0.4    b  None        True  None
8       Bus 36    0.4    b  None        True  None
9        Bus 3   15.0    b  None        True  None
10      Bus 30    0.4    b  None        True  None
11      Bus 11   15.0    b  None        True  None
12      Bus 31   15.0    b  None        True  None
13      Bus 12    0.4    b  None        True  None
14       Bus 9    0.4    b  None        True  None
15      Bus 28    0.4    b  None        True  None
16       Bus 8    0.4    b  None        True  None
17      Bus 26   15.0    b  None        True  None
18      Bus 16    0.4    b  None        True  None
19      Bus 38    0.4    b  None        True  None
20      Bus 29    0.4    b  None        True  None
21       Bus 6   15.0    b  None        True  None
22       Bus 2    0.4    b  None        True  None
23       Bus 4   15.0    b  None        True  None
24      Bus 40   15.0    b  None        True  None
25      Bus 32   15.0    b  None        True  None
26      Bus 34    0.4    b  None        True  None
27      Bus 14    0.4    b  None        True  None
28      Bus 33   15.0    b  None        True  None
29      Bus 39   15.0    b  None        True  None
30      Bus 37   15.0    b  None        True  None
31      Bus 19    0.4    b  None        True  None
32      Bus 20    0.4    b  None        True  None
33      Bus 24   15.0    b  None        True  None
34      Bus 21   15.0    b  None        True  None
35      Bus 18    0.4    b  None        True  None
36      Bus 23    0.4    b  None        True  None
37      Bus 47   15.0    b  None        True  None
38      Bus 45    0.4    b  None        True  None
39      Bus 41    0.4    b  None        True  None
40      Bus 22   15.0    b  None        True  None
41      Bus 17   15.0    b  None        True  None
42      Bus 42   15.0    b  None        True  None
43      Bus 49    0.4    b  None        True  None
44      Bus 50    0.4    b  None        True  None
45      Bus 46   15.0    b  None        True  None
46      Bus 48    0.4    b  None        True  None
47      Bus 25    0.4    b  None        True  None
48      Bus 43   15.0    b  None        True  None
49      Bus 44    0.4    b  None        True  None
50   Sub MV 52   15.0    b  None        True  None
51   Sub LV 52    0.4    b  None        True  None
52   Sub MV 53   15.0    b  None        True  None
53   Sub LV 53    0.4    b  None        True  None
54   Sub MV 54   15.0    b  None        True  None
55   Sub LV 54    0.4    b  None        True  None
56   Sub MV 57   15.0    b  None        True  None
57   Sub LV 57    0.4    b  None        True  None
58   Sub MV 58   15.0    b  None        True  None
59   Sub LV 58    0.4    b  None        True  None
60   Sub MV 60   15.0    b  None        True  None
61   Sub LV 60    0.4    b  None        True  None
62   Sub MV 62   15.0    b  None        True  None
63   Sub LV 62    0.4    b  None        True  None
64  Slack HV 0   70.0    b  None        True  None
65  Slack MV 0   15.0    b  None        True  None
--------------------------------------------------

LOAD:
             name  bus      p_mw        q_mvar  const_z_percent  const_i_percent  sn_mva  scaling  in_service type
0      Load 27 T1    0  0.126879  1.242549e-02              0.0              0.0     NaN      1.0        True  wye
1      Load 27 T2    0  0.126879  1.111505e-02              0.0              0.0     NaN      1.0        True  wye
2      Load 27 T3    0  0.126879  9.665580e-03              0.0              0.0     NaN      1.0        True  wye
3      Load 27 T4    0  0.126879  1.059731e-02              0.0              0.0     NaN      1.0        True  wye
4      Load 27 T5    0  0.128051  1.201936e-02              0.0              0.0     NaN      1.0        True  wye
5      Load 27 T6    0  0.146279  2.378433e-02              0.0              0.0     NaN      1.0        True  wye
6      Load 27 T7    0  0.165314  3.232270e-02              0.0              0.0     NaN      1.0        True  wye
7      Load 27 T8    0  0.297653  1.047287e-01              0.0              0.0     NaN      1.0        True  wye
8      Load 27 T9    0  0.295589  8.633016e-02              0.0              0.0     NaN      1.0        True  wye
9     Load 27 T10    0  0.293371  5.679421e-02              0.0              0.0     NaN      1.0        True  wye
10    Load 27 T11    0  0.292160  4.824760e-02              0.0              0.0     NaN      1.0        True  wye
11    Load 27 T12    0  0.273688  4.334562e-02              0.0              0.0     NaN      1.0        True  wye
12    Load 27 T13    0  0.294119  5.328649e-02              0.0              0.0     NaN      1.0        True  wye
13    Load 27 T14    0  0.293489  4.978025e-02              0.0              0.0     NaN      1.0        True  wye
14    Load 27 T15    0  0.293984  4.875096e-02              0.0              0.0     NaN      1.0        True  wye
15    Load 27 T16    0  0.296294  5.035994e-02              0.0              0.0     NaN      1.0        True  wye
16    Load 27 T17    0  0.196921  6.448991e-03              0.0              0.0     NaN      1.0        True  wye
17    Load 27 T18    0  0.165176  2.849419e-03              0.0              0.0     NaN      1.0        True  wye
18    Load 27 T19    0  0.166539  1.957706e-02              0.0              0.0     NaN      1.0        True  wye
19    Load 27 T20    0  0.156927  2.137223e-02              0.0              0.0     NaN      1.0        True  wye
20    Load 27 T21    0  0.156927  2.328177e-02              0.0              0.0     NaN      1.0        True  wye
21    Load 27 T22    0  0.147034  2.136972e-02              0.0              0.0     NaN      1.0        True  wye
22    Load 27 T23    0  0.142088  2.573398e-02              0.0              0.0     NaN      1.0        True  wye
23    Load 27 T24    0  0.126879  1.178780e-02              0.0              0.0     NaN      1.0        True  wye
24      Load 7 T1    1  0.125313  8.686032e-02              0.0              0.0     NaN      1.0        True  wye
25      Load 7 T2    1  0.125313  8.556606e-02              0.0              0.0     NaN      1.0        True  wye
26      Load 7 T3    1  0.125313  8.413448e-02              0.0              0.0     NaN      1.0        True  wye
27      Load 7 T4    1  0.125313  8.505470e-02              0.0              0.0     NaN      1.0        True  wye
28      Load 7 T5    1  0.126470  8.645920e-02              0.0              0.0     NaN      1.0        True  wye
29      Load 7 T6    1  0.144473  9.807893e-02              0.0              0.0     NaN      1.0        True  wye
30      Load 7 T7    1  0.163289  1.065119e-01              0.0              0.0     NaN      1.0        True  wye
31      Load 7 T8    1  0.294124  1.780239e-01              0.0              0.0     NaN      1.0        True  wye
32      Load 7 T9    1  0.292253  1.603229e-01              0.0              0.0     NaN      1.0        True  wye
33     Load 7 T10    1  0.290281  1.319683e-01              0.0              0.0     NaN      1.0        True  wye
34     Load 7 T11    1  0.289204  1.246035e-01              0.0              0.0     NaN      1.0        True  wye
35     Load 7 T12    1  0.271106  1.210643e-01              0.0              0.0     NaN      1.0        True  wye
36     Load 7 T13    1  0.290946  1.282282e-01              0.0              0.0     NaN      1.0        True  wye
37     Load 7 T14    1  0.290386  1.249975e-01              0.0              0.0     NaN      1.0        True  wye
38     Load 7 T15    1  0.290826  1.237987e-01              0.0              0.0     NaN      1.0        True  wye
39     Load 7 T16    1  0.292881  1.245456e-01              0.0              0.0     NaN      1.0        True  wye
40     Load 7 T17    1  0.194580  8.095760e-02              0.0              0.0     NaN      1.0        True  wye
41     Load 7 T18    1  0.163168  7.740247e-02              0.0              0.0     NaN      1.0        True  wye
42     Load 7 T19    1  0.164491  9.392360e-02              0.0              0.0     NaN      1.0        True  wye
43     Load 7 T20    1  0.154990  9.569661e-02              0.0              0.0     NaN      1.0        True  wye
44     Load 7 T21    1  0.154990  9.758257e-02              0.0              0.0     NaN      1.0        True  wye
45     Load 7 T22    1  0.145219  9.569413e-02              0.0              0.0     NaN      1.0        True  wye
46     Load 7 T23    1  0.140334  1.000045e-01              0.0              0.0     NaN      1.0        True  wye
47     Load 7 T24    1  0.125313  8.623051e-02              0.0              0.0     NaN      1.0        True  wye
48      Load 5 T1    2  0.002462 -1.359778e-06              0.0              0.0     NaN      1.0        True  wye
49      Load 5 T2    2  0.002385 -1.317335e-06              0.0              0.0     NaN      1.0        True  wye
50      Load 5 T3    2  0.002385 -1.317335e-06              0.0              0.0     NaN      1.0        True  wye
51      Load 5 T4    2  0.002387 -1.318272e-06              0.0              0.0     NaN      1.0        True  wye
52      Load 5 T5    2  0.003566 -1.969280e-06              0.0              0.0     NaN      1.0        True  wye
53      Load 5 T6    2  0.008369 -1.062119e-05              0.0              0.0     NaN      1.0        True  wye
54      Load 5 T7    2  0.010831 -1.842612e-05              0.0              0.0     NaN      1.0        True  wye
55      Load 5 T8    2  0.008841 -8.797962e-04              0.0              0.0     NaN      1.0        True  wye
56      Load 5 T9    2  0.007814 -4.262253e-04              0.0              0.0     NaN      1.0        True  wye
57     Load 5 T10    2  0.003844 -2.167241e-06              0.0              0.0     NaN      1.0        True  wye
58     Load 5 T11    2  0.003449 -1.904531e-06              0.0              0.0     NaN      1.0        True  wye
59     Load 5 T12    2  0.002994 -1.653509e-06              0.0              0.0     NaN      1.0        True  wye
60     Load 5 T13    2  0.003930 -2.327462e-06              0.0              0.0     NaN      1.0        True  wye
61     Load 5 T14    2  0.003785 -2.090174e-06              0.0              0.0     NaN      1.0        True  wye
62     Load 5 T15    2  0.003864 -2.203575e-06              0.0              0.0     NaN      1.0        True  wye
63     Load 5 T16    2  0.004712 -3.788918e-06              0.0              0.0     NaN      1.0        True  wye
64     Load 5 T17    2  0.007052 -8.160650e-06              0.0              0.0     NaN      1.0        True  wye
65     Load 5 T18    2  0.007236 -8.503394e-06              0.0              0.0     NaN      1.0        True  wye
66     Load 5 T19    2  0.007151 -8.345035e-06              0.0              0.0     NaN      1.0        True  wye
67     Load 5 T20    2  0.008148 -1.020772e-05              0.0              0.0     NaN      1.0        True  wye
68     Load 5 T21    2  0.007977 -9.888508e-06              0.0              0.0     NaN      1.0        True  wye
69     Load 5 T22    2  0.005072 -4.460997e-06              0.0              0.0     NaN      1.0        True  wye
70     Load 5 T23    2  0.002669 -1.473894e-06              0.0              0.0     NaN      1.0        True  wye
71     Load 5 T24    2  0.002526 -1.395146e-06              0.0              0.0     NaN      1.0        True  wye
72     Load 13 T1    3  0.020774  1.292132e-03              0.0              0.0     NaN      1.0        True  wye
73     Load 13 T2    3  0.020774  2.487406e-04              0.0              0.0     NaN      1.0        True  wye
74     Load 13 T3    3  0.020774  0.000000e+00              0.0              0.0     NaN      1.0        True  wye
75     Load 13 T4    3  0.020774  0.000000e+00              0.0              0.0     NaN      1.0        True  wye
76     Load 13 T5    3  0.021120  7.174142e-05              0.0              0.0     NaN      1.0        True  wye
77     Load 13 T6    3  0.026252  5.314801e-04              0.0              0.0     NaN      1.0        True  wye
78     Load 13 T7    3  0.034319  1.639660e-03              0.0              0.0     NaN      1.0        True  wye
79     Load 13 T8    3  0.077478  1.145184e-02              0.0              0.0     NaN      1.0        True  wye
80     Load 13 T9    3  0.072477  4.668021e-03              0.0              0.0     NaN      1.0        True  wye
81    Load 13 T10    3  0.069757 -2.262658e-03              0.0              0.0     NaN      1.0        True  wye
82    Load 13 T11    3  0.069429 -3.595508e-03              0.0              0.0     NaN      1.0        True  wye
83    Load 13 T12    3  0.064458 -3.811905e-03              0.0              0.0     NaN      1.0        True  wye
84    Load 13 T13    3  0.071794 -1.762100e-03              0.0              0.0     NaN      1.0        True  wye
85    Load 13 T14    3  0.069862 -2.193442e-03              0.0              0.0     NaN      1.0        True  wye
86    Load 13 T15    3  0.070302 -2.224800e-03              0.0              0.0     NaN      1.0        True  wye
87    Load 13 T16    3  0.073487 -2.261072e-03              0.0              0.0     NaN      1.0        True  wye
88    Load 13 T17    3  0.046367  0.000000e+00              0.0              0.0     NaN      1.0        True  wye
89    Load 13 T18    3  0.031335  0.000000e+00              0.0              0.0     NaN      1.0        True  wye
90    Load 13 T19    3  0.031993  0.000000e+00              0.0              0.0     NaN      1.0        True  wye
91    Load 13 T20    3  0.029311  0.000000e+00              0.0              0.0     NaN      1.0        True  wye
92    Load 13 T21    3  0.029305  0.000000e+00              0.0              0.0     NaN      1.0        True  wye
93    Load 13 T22    3  0.026467  0.000000e+00              0.0              0.0     NaN      1.0        True  wye
94    Load 13 T23    3  0.025048  3.063611e-04              0.0              0.0     NaN      1.0        True  wye
95    Load 13 T24    3  0.020774  1.157158e-03              0.0              0.0     NaN      1.0        True  wye
96     Load 10 T1    4  0.006925  1.683035e-03              0.0              0.0     NaN      1.0        True  wye
97     Load 10 T2    4  0.006925  1.611517e-03              0.0              0.0     NaN      1.0        True  wye
98     Load 10 T3    4  0.006925  1.532411e-03              0.0              0.0     NaN      1.0        True  wye
99     Load 10 T4    4  0.006925  1.583261e-03              0.0              0.0     NaN      1.0        True  wye
100    Load 10 T5    4  0.007040  1.699428e-03              0.0              0.0     NaN      1.0        True  wye
101    Load 10 T6    4  0.008751  2.868904e-03              0.0              0.0     NaN      1.0        True  wye
102    Load 10 T7    4  0.011416  4.497120e-03              0.0              0.0     NaN      1.0        True  wye
103    Load 10 T8    4  0.025607  1.299327e-02              0.0              0.0     NaN      1.0        True  wye
104    Load 10 T9    4  0.023689  1.102018e-02              0.0              0.0     NaN      1.0        True  wye
105   Load 10 T10    4  0.022454  9.043237e-03              0.0              0.0     NaN      1.0        True  wye
106   Load 10 T11    4  0.022165  8.980983e-03              0.0              0.0     NaN      1.0        True  wye
107   Load 10 T12    4  0.020291  1.008502e-02              0.0              0.0     NaN      1.0        True  wye
108   Load 10 T13    4  0.023244  8.628806e-03              0.0              0.0     NaN      1.0        True  wye
109   Load 10 T14    4  0.022507  8.407374e-03              0.0              0.0     NaN      1.0        True  wye
110   Load 10 T15    4  0.022727  8.101805e-03              0.0              0.0     NaN      1.0        True  wye
111   Load 10 T16    4  0.024127  7.932640e-03              0.0              0.0     NaN      1.0        True  wye
112   Load 10 T17    4  0.015321  3.612069e-03              0.0              0.0     NaN      1.0        True  wye
113   Load 10 T18    4  0.010399  1.951323e-03              0.0              0.0     NaN      1.0        True  wye
114   Load 10 T19    4  0.010652  3.065807e-03              0.0              0.0     NaN      1.0        True  wye
115   Load 10 T20    4  0.009770  2.981658e-03              0.0              0.0     NaN      1.0        True  wye
116   Load 10 T21    4  0.009768  3.099157e-03              0.0              0.0     NaN      1.0        True  wye
117   Load 10 T22    4  0.008822  2.743375e-03              0.0              0.0     NaN      1.0        True  wye
118   Load 10 T23    4  0.008349  2.869032e-03              0.0              0.0     NaN      1.0        True  wye
119   Load 10 T24    4  0.006925  1.648233e-03              0.0              0.0     NaN      1.0        True  wye
120    Load 35 T1    5  0.042413 -1.130262e-02              0.0              0.0     NaN      1.0        True  wye
121    Load 35 T2    5  0.042413 -1.174067e-02              0.0              0.0     NaN      1.0        True  wye
122    Load 35 T3    5  0.042413 -1.222519e-02              0.0              0.0     NaN      1.0        True  wye
123    Load 35 T4    5  0.042413 -1.191374e-02              0.0              0.0     NaN      1.0        True  wye
124    Load 35 T5    5  0.043119 -1.120222e-02              0.0              0.0     NaN      1.0        True  wye
125    Load 35 T6    5  0.053598 -4.039171e-03              0.0              0.0     NaN      1.0        True  wye
126    Load 35 T7    5  0.070068  5.933651e-03              0.0              0.0     NaN      1.0        True  wye
127    Load 35 T8    5  0.158183  5.797256e-02              0.0              0.0     NaN      1.0        True  wye
128    Load 35 T9    5  0.147973  4.412226e-02              0.0              0.0     NaN      1.0        True  wye
129   Load 35 T10    5  0.142421  2.866557e-02              0.0              0.0     NaN      1.0        True  wye
130   Load 35 T11    5  0.141750  2.589809e-02              0.0              0.0     NaN      1.0        True  wye
131   Load 35 T12    5  0.131601  2.504711e-02              0.0              0.0     NaN      1.0        True  wye
132   Load 35 T13    5  0.146579  2.770467e-02              0.0              0.0     NaN      1.0        True  wye
133   Load 35 T14    5  0.142635  2.500362e-02              0.0              0.0     NaN      1.0        True  wye
134   Load 35 T15    5  0.143533  2.410723e-02              0.0              0.0     NaN      1.0        True  wye
135   Load 35 T16    5  0.150037  2.598012e-02              0.0              0.0     NaN      1.0        True  wye
136   Load 35 T17    5  0.094667  5.127129e-04              0.0              0.0     NaN      1.0        True  wye
137   Load 35 T18    5  0.063976 -9.659357e-03              0.0              0.0     NaN      1.0        True  wye
138   Load 35 T19    5  0.065320 -2.833141e-03              0.0              0.0     NaN      1.0        True  wye
139   Load 35 T20    5  0.059843 -3.348556e-03              0.0              0.0     NaN      1.0        True  wye
140   Load 35 T21    5  0.059830 -2.628872e-03              0.0              0.0     NaN      1.0        True  wye
141   Load 35 T22    5  0.054037 -4.808041e-03              0.0              0.0     NaN      1.0        True  wye
142   Load 35 T23    5  0.051139 -4.038391e-03              0.0              0.0     NaN      1.0        True  wye
143   Load 35 T24    5  0.042413 -1.151579e-02              0.0              0.0     NaN      1.0        True  wye
144    Load 15 T1    6  0.003486 -1.558101e-03              0.0              0.0     NaN      1.0        True  wye
145    Load 15 T2    6  0.003486 -5.123249e-04              0.0              0.0     NaN      1.0        True  wye
146    Load 15 T3    6  0.003486 -2.634404e-04              0.0              0.0     NaN      1.0        True  wye
147    Load 15 T4    6  0.003486 -2.634797e-04              0.0              0.0     NaN      1.0        True  wye
148    Load 15 T5    6  0.003486 -3.706186e-04              0.0              0.0     NaN      1.0        True  wye
149    Load 15 T6    6  0.003486 -1.090947e-03              0.0              0.0     NaN      1.0        True  wye
150    Load 15 T7    6  0.009066 -2.719449e-03              0.0              0.0     NaN      1.0        True  wye
151    Load 15 T8    6  0.014703 -1.062737e-02              0.0              0.0     NaN      1.0        True  wye
152    Load 15 T9    6  0.025557 -4.492308e-03              0.0              0.0     NaN      1.0        True  wye
153   Load 15 T10    6  0.022259 -1.008237e-03              0.0              0.0     NaN      1.0        True  wye
154   Load 15 T11    6  0.020167  4.894946e-04              0.0              0.0     NaN      1.0        True  wye
155   Load 15 T12    6  0.018323  1.336595e-03              0.0              0.0     NaN      1.0        True  wye
156   Load 15 T13    6  0.022169 -1.663884e-03              0.0              0.0     NaN      1.0        True  wye
157   Load 15 T14    6  0.021603 -1.046031e-03              0.0              0.0     NaN      1.0        True  wye
158   Load 15 T15    6  0.022811 -1.117957e-03              0.0              0.0     NaN      1.0        True  wye
159   Load 15 T16    6  0.026591 -1.586591e-03              0.0              0.0     NaN      1.0        True  wye
160   Load 15 T17    6  0.029402 -2.201158e-03              0.0              0.0     NaN      1.0        True  wye
161   Load 15 T18    6  0.022675 -1.190592e-03              0.0              0.0     NaN      1.0        True  wye
162   Load 15 T19    6  0.020153 -1.124875e-03              0.0              0.0     NaN      1.0        True  wye
163   Load 15 T20    6  0.020263 -1.063849e-03              0.0              0.0     NaN      1.0        True  wye
164   Load 15 T21    6  0.004057 -6.513722e-04              0.0              0.0     NaN      1.0        True  wye
165   Load 15 T22    6  0.003486 -4.764392e-04              0.0              0.0     NaN      1.0        True  wye
166   Load 15 T23    6  0.003486 -6.804533e-04              0.0              0.0     NaN      1.0        True  wye
167   Load 15 T24    6  0.003486 -1.424535e-03              0.0              0.0     NaN      1.0        True  wye
168     Load 1 T1    7  0.031660  5.487183e-03              0.0              0.0     NaN      1.0        True  wye
169     Load 1 T2    7  0.030395  5.253587e-03              0.0              0.0     NaN      1.0        True  wye
170     Load 1 T3    7  0.029763  3.856874e-03              0.0              0.0     NaN      1.0        True  wye
171     Load 1 T4    7  0.030286  6.691816e-03              0.0              0.0     NaN      1.0        True  wye
172     Load 1 T5    7  0.035517  8.793234e-03              0.0              0.0     NaN      1.0        True  wye
173     Load 1 T6    7  0.045499  1.192701e-02              0.0              0.0     NaN      1.0        True  wye
174     Load 1 T7    7  0.053790  1.526793e-02              0.0              0.0     NaN      1.0        True  wye
175     Load 1 T8    7  0.053815  8.218025e-03              0.0              0.0     NaN      1.0        True  wye
176     Load 1 T9    7  0.051262  1.093524e-03              0.0              0.0     NaN      1.0        True  wye
177    Load 1 T10    7  0.048644 -2.673855e-03              0.0              0.0     NaN      1.0        True  wye
178    Load 1 T11    7  0.048738 -2.135655e-03              0.0              0.0     NaN      1.0        True  wye
179    Load 1 T12    7  0.047354 -7.128729e-04              0.0              0.0     NaN      1.0        True  wye
180    Load 1 T13    7  0.047080  1.081453e-02              0.0              0.0     NaN      1.0        True  wye
181    Load 1 T14    7  0.046168  1.409978e-02              0.0              0.0     NaN      1.0        True  wye
182    Load 1 T15    7  0.048674  1.602084e-02              0.0              0.0     NaN      1.0        True  wye
183    Load 1 T16    7  0.061084  1.860420e-02              0.0              0.0     NaN      1.0        True  wye
184    Load 1 T17    7  0.076499  2.024040e-02              0.0              0.0     NaN      1.0        True  wye
185    Load 1 T18    7  0.077583  1.807871e-02              0.0              0.0     NaN      1.0        True  wye
186    Load 1 T19    7  0.072461  1.504381e-02              0.0              0.0     NaN      1.0        True  wye
187    Load 1 T20    7  0.069968  1.234299e-02              0.0              0.0     NaN      1.0        True  wye
188    Load 1 T21    7  0.064691  1.102561e-02              0.0              0.0     NaN      1.0        True  wye
189    Load 1 T22    7  0.053092  1.032344e-02              0.0              0.0     NaN      1.0        True  wye
190    Load 1 T23    7  0.042802  7.855575e-03              0.0              0.0     NaN      1.0        True  wye
191    Load 1 T24    7  0.034189  6.372303e-03              0.0              0.0     NaN      1.0        True  wye
192    Load 36 T1    8  0.024236 -4.841117e-03              0.0              0.0     NaN      1.0        True  wye
193    Load 36 T2    8  0.024236 -5.091429e-03              0.0              0.0     NaN      1.0        True  wye
194    Load 36 T3    8  0.024236 -5.368300e-03              0.0              0.0     NaN      1.0        True  wye
195    Load 36 T4    8  0.024236 -5.190327e-03              0.0              0.0     NaN      1.0        True  wye
196    Load 36 T5    8  0.024639 -4.783742e-03              0.0              0.0     NaN      1.0        True  wye
197    Load 36 T6    8  0.030628 -6.905735e-04              0.0              0.0     NaN      1.0        True  wye
198    Load 36 T7    8  0.040039  5.008182e-03              0.0              0.0     NaN      1.0        True  wye
199    Load 36 T8    8  0.090390  3.474470e-02              0.0              0.0     NaN      1.0        True  wye
...

EXT_GRID:
        name  bus  vm_pu  va_degree  slack_weight  in_service
0  ExtGrid 0   64    1.0        0.0           1.0        True
--------------------------------------------------

LINE:
       name std_type  from_bus  to_bus  length_km  r_ohm_per_km  x_ohm_per_km  c_nf_per_km  g_us_per_km  max_i_ka   df  parallel  type  in_service   geo
0    Line 1     None         3       2   0.060828        0.1732         0.381          0.0          0.0      1.53  1.0         1  None        True  None
1    Line 2     None        65      54   0.403172        0.1732         0.381          0.0          0.0      1.53  1.0         1  None        True  None
2    Line 6     None        33      40   0.131529        0.0900         0.190          0.0          0.0      3.00  1.0         1  None        True  None
3    Line 7     None        54      12   0.067196        0.1732         0.381          0.0          0.0      1.53  1.0         1  None        True  None
4   Line 10     None         4      63   0.034489        0.1732         0.381          0.0          0.0      1.53  1.0         1  None        True  None
5   Line 12     None        18      13   0.063246        0.1732         0.381          0.0          0.0      1.53  1.0         1  None        True  None
6   Line 13     None        56      42   0.083720        0.1732         0.381          0.0          0.0      1.53  1.0         1  None        True  None
7   Line 15     None        15      55   0.088097        0.1732         0.381          0.0          0.0      1.53  1.0         1  None        True  None
8   Line 16     None        11       9   0.139284        0.1732         0.381          0.0          0.0      1.53  1.0         1  None        True  None
9   Line 18     None        35      32   0.058310        0.1732         0.381          0.0          0.0      1.53  1.0         1  None        True  None
10  Line 20     None         8      10   0.150000        0.0900         0.190          0.0          0.0      3.00  1.0         1  None        True  None
11  Line 21     None         7      63   0.062561        0.1732         0.381          0.0          0.0      1.53  1.0         1  None        True  None
12  Line 22     None        46      57   0.142928        0.1732         0.381          0.0          0.0      1.53  1.0         1  None        True  None
13  Line 25     None         7       6   0.104403        0.1732         0.381          0.0          0.0      1.53  1.0         1  None        True  None
14  Line 26     None         5       0   0.063246        0.1732         0.381          0.0          0.0      1.53  1.0         1  None        True  None
15  Line 28     None         9      62   0.103587        0.1732         0.381          0.0          0.0      1.53  1.0         1  None        True  None
16  Line 29     None         5      12   0.126491        0.1732         0.381          0.0          0.0      1.53  1.0         1  None        True  None
17  Line 30     None        53      36   0.037883        0.1732         0.381          0.0          0.0      1.53  1.0         1  None        True  None
18  Line 32     None        11      60   0.121261        0.1732         0.381          0.0          0.0      1.53  1.0         1  None        True  None
19  Line 35     None        41      52   0.098294        0.1732         0.381          0.0          0.0      1.53  1.0         1  None        True  None
20  Line 37     None        41      40   0.080000        0.1732         0.381          0.0          0.0      1.53  1.0         1  None        True  None
21  Line 39     None        34      52   0.068902        0.1732         0.381          0.0          0.0      1.53  1.0         1  None        True  None
22  Line 41     None        57      38   0.012741        0.0900         0.190          0.0          0.0      3.00  1.0         1  None        True  None
23  Line 42     None        60      21   0.072247        0.1732         0.381          0.0          0.0      1.53  1.0         1  None        True  None
24  Line 43     None        28      29   0.076158        0.0900         0.190          0.0          0.0      3.00  1.0         1  None        True  None
25  Line 44     None        65      52   1.455022        0.1732         0.381          0.0          0.0      1.53  1.0         1  None        True  None
26  Line 45     None        39      44   0.058310        0.0900         0.190          0.0          0.0      3.00  1.0         1  None        True  None
27  Line 46     None        14      61   0.063183        0.1732         0.381          0.0          0.0      1.53  1.0         1  None        True  None
28  Line 47     None        48      45   0.092195        0.1732         0.381          0.0          0.0      1.53  1.0         1  None        True  None
29  Line 49     None        42      48   0.133417        0.0900         0.190          0.0          0.0      3.00  1.0         1  None        True  None
30  Line 50     None        17      12   0.058310        0.0900         0.190          0.0          0.0      3.00  1.0         1  None        True  None
31  Line 51     None        20      10   0.156205        0.1732         0.381          0.0          0.0      1.53  1.0         1  None        True  None
32  Line 52     None        51      36   0.071640        0.1732         0.381          0.0          0.0      1.53  1.0         1  None        True  None
33  Line 53     None        22      61   0.050703        0.1732         0.381          0.0          0.0      1.53  1.0         1  None        True  None
34  Line 54     None        47      51   0.092304        0.1732         0.381          0.0          0.0      1.53  1.0         1  None        True  None
35  Line 56     None         3       6   0.063246        0.1732         0.381          0.0          0.0      1.53  1.0         1  None        True  None
36  Line 57     None         9       1   0.089443        0.1732         0.381          0.0          0.0      1.53  1.0         1  None        True  None
37  Line 59     None         7      13   0.092195        0.1732         0.381          0.0          0.0      1.53  1.0         1  None        True  None
38  Line 60     None        46      49   0.161245        0.1732         0.381          0.0          0.0      1.53  1.0         1  None        True  None
39  Line 61     None        24      28   0.098489        0.1732         0.381          0.0          0.0      1.53  1.0         1  None        True  None
40  Line 62     None        28      30   0.084853        0.1732         0.381          0.0          0.0      1.53  1.0         1  None        True  None
41  Line 63     None        31      32   0.067082        0.1732         0.381          0.0          0.0      1.53  1.0         1  None        True  None
42  Line 70     None        23      21   0.152971        0.1732         0.381          0.0          0.0      1.53  1.0         1  None        True  None
43  Line 71     None        16      27   0.120416        0.1732         0.381          0.0          0.0      1.53  1.0         1  None        True  None
44  Line 73     None        56      37   0.097426        0.1732         0.381          0.0          0.0      1.53  1.0         1  None        True  None
45  Line 74     None        58      42   0.037966        0.0900         0.190          0.0          0.0      3.00  1.0         1  None        True  None
46  Line 75     None        35      53   0.035348        0.1732         0.381          0.0          0.0      1.53  1.0         1  None        True  None
47  Line 76     None        65      62   0.360052        0.1732         0.381          0.0          0.0      1.53  1.0         1  None        True  None
48  Line 77     None        26      20   0.120416        0.1732         0.381          0.0          0.0      1.53  1.0         1  None        True  None
49  Line 78     None        25      29   0.120416        0.1732         0.381          0.0          0.0      1.53  1.0         1  None        True  None
50  Line 79     None        15      19   0.080623        0.1732         0.381          0.0          0.0      1.53  1.0         1  None        True  None
51  Line 80     None        65      56   1.466053        0.1732         0.381          0.0          0.0      1.53  1.0         1  None        True  None
52  Line 81     None        46      59   0.043734        0.1732         0.381          0.0          0.0      1.53  1.0         1  None        True  None
53  Line 82     None         8      55   0.055373        0.1732         0.381          0.0          0.0      1.53  1.0         1  None        True  None
54  Line 83     None        43      44   0.102956        0.0900         0.190          0.0          0.0      3.00  1.0         1  None        True  None
55  Line 84     None        39      38   0.082462        0.1732         0.381          0.0          0.0      1.53  1.0         1  None        True  None
56  Line 85     None        16      61   0.079905        0.1732         0.381          0.0          0.0      1.53  1.0         1  None        True  None
57  Line 86     None        24      17   0.092195        0.1732         0.381          0.0          0.0      1.53  1.0         1  None        True  None
--------------------------------------------------

TRAFO:
                   name std_type  hv_bus  lv_bus  sn_mva  vn_hv_kv  vn_lv_kv  vk_percent  vkr_percent  pfe_kw  i0_percent  shift_degree tap_side  tap_neutral  tap_min  tap_max  tap_step_percent  tap_step_degree  tap_pos tap_changer_type  id_characteristic_table  tap_dependency_table  parallel   df  in_service
0  MV/LV Transformer 52     None      50      51    10.0      15.0       0.4        0.01         0.01    0.01        0.01           0.0     None          NaN      NaN      NaN               NaN              NaN      NaN              NaN                     <NA>                 False         1  1.0        True
1  MV/LV Transformer 53     None      52      53    10.0      15.0       0.4        0.01         0.01    0.01        0.01           0.0     None          NaN      NaN      NaN               NaN              NaN      NaN              NaN                     <NA>                 False         1  1.0        True
2  MV/LV Transformer 54     None      54      55    10.0      15.0       0.4        0.01         0.01    0.01        0.01           0.0     None          NaN      NaN      NaN               NaN              NaN      NaN              NaN                     <NA>                 False         1  1.0        True
3  MV/LV Transformer 57     None      56      57    10.0      15.0       0.4        0.01         0.01    0.01        0.01           0.0     None          NaN      NaN      NaN               NaN              NaN      NaN              NaN                     <NA>                 False         1  1.0        True
4  MV/LV Transformer 58     None      58      59    10.0      15.0       0.4        0.01         0.01    0.01        0.01           0.0     None          NaN      NaN      NaN               NaN              NaN      NaN              NaN                     <NA>                 False         1  1.0        True
5  MV/LV Transformer 60     None      60      61    10.0      15.0       0.4        0.01         0.01    0.01        0.01           0.0     None          NaN      NaN      NaN               NaN              NaN      NaN              NaN                     <NA>                 False         1  1.0        True
6  MV/LV Transformer 62     None      62      63    10.0      15.0       0.4        0.01         0.01    0.01        0.01           0.0     None          NaN      NaN      NaN               NaN              NaN      NaN              NaN                     <NA>                 False         1  1.0        True
7   Slack Transformer 0     None      64      65    40.0      70.0      15.0        0.01         0.01    0.01        0.01           0.0     None          NaN      NaN      NaN               NaN              NaN      NaN              NaN                     <NA>                 False         1  1.0        True
--------------------------------------------------

RES_BUS:
       vm_pu  va_degree      p_mw        q_mvar
0   0.999621  -0.032862  0.126879  1.178780e-02
1   0.999624  -0.030290  0.125313  8.623051e-02
2   0.987655  -1.370023  0.002526 -1.395146e-06
3   0.987823  -1.348529  0.020774  1.157158e-03
4   0.999322  -0.052725  0.006925  1.648233e-03
5   0.999629  -0.032116  0.042413 -1.151579e-02
6   0.989621  -1.147501  0.003486 -1.424535e-03
7   0.992661  -0.757332  0.034189  6.372303e-03
8   0.995955  -0.591499  0.024236 -4.962924e-03
9   0.999646  -0.029542  0.248207  2.968952e-03
10  0.991931  -1.087238  0.018177 -7.609504e-04
11  0.999612  -0.032969  0.017311  2.511599e-03
12  0.999645  -0.030038  0.016157  1.278714e-04
13  0.989954  -1.104219  0.025967  2.682745e-04
14  0.998183  -0.188839  0.018177  1.010126e-03
15  0.998304  -0.444636  0.030295 -7.340845e-03
16  0.997709  -0.475483  0.030295 -7.133542e-03
17  0.999629  -0.031105  0.375939  1.875183e-01
18  0.989947  -1.115266  0.001058 -4.324020e-04
19  0.998295  -0.456753  0.000926 -3.783517e-04
20  0.986822  -1.728567  0.015580 -5.841613e-05
21  0.999575  -0.036598  0.098684  4.486467e-02
22  0.995709  -0.458217  0.062324  3.395973e-03
23  0.999578  -0.037202  0.030171 -2.315341e-02
24  0.999634  -0.031905  0.002883 -2.490568e-02
25  0.999636  -0.033185  0.030295 -5.418426e-03
26  0.984981  -1.962647  0.013849  0.000000e+00
27  0.996838  -0.585951  0.006681 -1.479335e-05
28  0.999636  -0.032623  0.020196 -5.394321e-03
29  0.999637  -0.032802  0.003364 -2.597481e-02
30  0.999636  -0.032661  0.004008 -1.286086e-03
31  0.994117  -0.686848  0.016157  0.000000e+00
32  0.995301  -0.537393  0.020196 -2.318049e-04
33  0.999647  -0.026621  0.003295 -2.084651e-02
34  0.999652  -0.025626  0.036354  9.347990e-03
35  0.997594  -0.245270  0.010387  3.042124e-03
36  0.999500  -0.036124  0.000705 -2.882680e-04
37  0.999888  -0.051746  0.016157  1.220824e-02
38  1.000103  -0.116301  0.018177 -4.061481e-02
39  0.996749  -0.535552  0.010684  0.000000e+00
40  0.999645  -0.026537  0.002614 -1.214040e-02
41  0.999641  -0.026375  0.109649  6.514579e-02
42  0.999887  -0.053831  0.164473 -7.824417e-02
43  0.994971  -0.751459  0.015580  0.000000e+00
44  0.995880  -0.641315  0.010845 -7.884344e-05
45  0.999884  -0.054174  0.012118 -2.914815e-08
46  0.998123  -0.251749  0.025967  1.916428e-03
47  0.999062  -0.069388  0.001648 -6.864761e-05
48  0.999885  -0.054066  0.024236 -1.627531e-07
49  0.994961  -0.655762  0.018177 -1.336248e-04
50  0.999212  -0.048209  0.000000  0.000000e+00
51  0.999212  -0.048210  0.000000  0.000000e+00
52  0.999655  -0.025411  0.000000  0.000000e+00
53  0.999655  -0.025409  0.000000  0.000000e+00
54  0.999692  -0.026350  0.000000  0.000000e+00
55  0.999691  -0.026357  0.000000  0.000000e+00
56  0.999891  -0.051645  0.000000  0.000000e+00
57  0.999890  -0.051668  0.000000  0.000000e+00
58  0.999886  -0.053891  0.000000  0.000000e+00
59  0.999886  -0.053890  0.000000  0.000000e+00
60  0.999585  -0.035763  0.000000  0.000000e+00
61  0.999584  -0.035764  0.000000  0.000000e+00
62  0.999717  -0.023645  0.000000  0.000000e+00
63  0.999716  -0.023639  0.000000  0.000000e+00
64  1.000000   0.000000 -1.977777 -1.862517e-01
65  0.999995   0.000026  0.000000  0.000000e+00
--------------------------------------------------

RES_LINE:
    p_from_mw   q_from_mvar   p_to_mw     q_to_mvar         pl_mw       ql_mvar  i_from_ka   i_to_ka      i_ka  vm_from_pu  va_from_degree  vm_to_pu  va_to_degree  loading_percent
0    0.002527 -4.475549e-07 -0.002526  1.395146e-06  4.307686e-07  9.475914e-07   0.003692  0.003692  0.003692    0.987823       -1.348529  0.987655     -1.370023         0.241293
1    0.726193  1.145878e-01 -0.726025 -1.142188e-01  1.677432e-04  3.689964e-04   0.028297  0.028297  0.028297    0.999995        0.000026  0.999692     -0.026350         1.849487
2   -0.003295  2.084651e-02  0.003295 -2.084646e-02  2.345164e-08  4.950901e-08   0.000813  0.000813  0.000813    0.999647       -0.026621  0.999645     -0.026537         0.027088
3    0.622165  1.250051e-01 -0.622144 -1.249593e-01  2.084384e-05  4.585163e-05   0.024433  0.024433  0.024433    0.999692       -0.026350  0.999645     -0.030038         1.596944
4   -0.006925 -1.648233e-03  0.006926  1.652399e-03  1.894117e-06  4.166620e-06   0.010281  0.010281  0.010281    0.999322       -0.052725  0.999716     -0.023639         0.671953
5   -0.001058  4.324020e-04  0.001058 -4.322012e-04  9.127845e-08  2.007915e-07   0.001667  0.001667  0.001667    0.989947       -1.115266  0.989954     -1.104219         0.108929
6    0.234665 -7.562878e-02 -0.234661  7.563740e-02  3.918326e-06  8.619413e-06   0.009491  0.009491  0.009491    0.999891       -0.051645  0.999887     -0.053831         0.620312
7   -0.031221  7.719004e-03  0.031320 -7.501286e-03  9.897312e-05  2.177180e-04   0.046499  0.046499  0.046499    0.998304       -0.444636  0.999691     -0.026357         3.039145
8   -0.264027 -2.330331e-02  0.264035  2.331989e-02  7.538250e-06  1.658241e-05   0.010206  0.010206  0.010206    0.999612       -0.032969  0.999646     -0.029542         0.667051
9    0.036457 -4.169692e-06 -0.036373  1.896093e-04  8.429957e-05  1.854396e-04   0.052748  0.052748  0.052748    0.997594       -0.245270  0.995301     -0.537393         3.447601
10   0.047978 -1.792652e-05 -0.047782  4.312918e-04  1.958046e-04  4.133653e-04   0.069532  0.069532  0.069532    0.995955       -0.591499  0.991931     -1.087238         2.317729
11  -0.088196 -6.370834e-03  0.088733  7.552963e-03  5.373876e-04  1.182129e-03   0.128575  0.128575  0.128575    0.992661       -0.757332  0.999716     -0.023639         8.403606
12  -0.010432 -4.233671e-04  0.010449  4.606094e-04  1.693012e-05  3.724236e-05   0.015099  0.015099  0.015099    0.998123       -0.251749  0.999890     -0.051668         0.986838
13   0.026907 -1.162328e-06 -0.026824  1.838277e-04  8.303843e-05  1.826654e-04   0.039124  0.039124  0.039124    0.992661       -0.757332  0.989621     -1.147501         2.557154
14   0.126880  1.178954e-02 -0.126879 -1.178780e-02  7.911137e-07  1.740267e-06   0.004906  0.004906  0.004906    0.999629       -0.032116  0.999621     -0.032862         0.320685
15  -0.637556 -1.125229e-01  0.637590  1.125964e-01  3.344526e-05  7.357184e-05   0.024928  0.024928  0.024928    0.999646       -0.029542  0.999717     -0.023645         1.629257
16  -0.169293 -2.737589e-04  0.169296  2.799022e-04  2.792711e-06  6.143320e-06   0.006519  0.006519  0.006519    0.999629       -0.032116  0.999645     -0.030038         0.426047
17   0.002364  6.432175e-04 -0.002363 -6.426758e-04  2.462616e-07  5.417186e-07   0.003537  0.003537  0.003537    0.999655       -0.025409  0.999500     -0.036124         0.231179
18   0.246716  2.079171e-02 -0.246710 -2.077911e-02  5.726549e-06  1.259709e-05   0.009533  0.009533  0.009533    0.999612       -0.032969  0.999585     -0.035763         0.623102
19  -0.115558 -3.215909e-02  0.115560  3.216149e-02  1.089445e-06  2.396528e-06   0.004619  0.004619  0.004619    0.999641       -0.026375  0.999655     -0.025411         0.301865
20   0.005910 -3.298670e-02 -0.005910  3.298685e-02  6.920934e-08  1.522446e-07   0.001290  0.001290  0.001290    0.999641       -0.026375  0.999645     -0.026537         0.084336
21  -0.036354 -9.347990e-03  0.036354  9.348155e-03  7.478273e-08  1.645047e-07   0.001445  0.001445  0.001445    0.999652       -0.025626  0.999655     -0.025411         0.094463
22   0.055481 -4.027102e-02 -0.055447  4.034215e-02  3.369082e-05  7.112507e-05   0.098963  0.098963  0.098963    0.999890       -0.051668  1.000103     -0.116301         3.298756
23   0.128856  2.171373e-02 -0.128855 -2.171164e-02  9.504242e-07  2.090714e-06   0.005032  0.005032  0.005032    0.999585       -0.035763  0.999575     -0.036598         0.328869
24   0.033659 -3.139291e-02 -0.033659  3.139304e-02  6.458052e-08  1.363366e-07   0.001772  0.001772  0.001772    0.999636       -0.032623  0.999637     -0.032802         0.059073
25   0.201263  4.648158e-02 -0.201216 -4.637645e-02  4.778996e-05  1.051269e-04   0.007951  0.007951  0.007951    0.999995        0.000026  0.999655     -0.025411         0.519646
26   0.026462 -6.038526e-08 -0.026439  4.886502e-05  2.311798e-05  4.880463e-05   0.038320  0.038320  0.038320    0.996749       -0.535552  0.995880     -0.641315         1.277327
27  -0.018177 -1.010126e-03  0.018200  1.060171e-03  2.275015e-05  5.004507e-05   0.026324  0.026324  0.026324    0.998183       -0.188839  0.999584     -0.035764         1.720545
28   0.012118 -6.217828e-09 -0.012118  2.914800e-08  1.042390e-08  2.293017e-08   0.000466  0.000466  0.000466    0.999885       -0.054066  0.999884     -0.054174         0.030488
29   0.036354 -2.004000e-08 -0.036354  1.689687e-07  7.054519e-08  1.489287e-07   0.001399  0.001399  0.001399    0.999887       -0.053831  0.999885     -0.054066         0.046647
30  -0.436686 -1.245413e-01  0.436691  1.245515e-01  4.813071e-06  1.016093e-05   0.017485  0.017485  0.017485    0.999629       -0.031105  0.999645     -0.030038         0.582825
31  -0.029455  1.730710e-06  0.029606  3.296586e-04  1.506473e-04  3.313893e-04   0.043082  0.043082  0.043082    0.986822       -1.728567  0.991931     -1.087238         2.815835
32  -0.001658 -9.303263e-04  0.001658  9.309437e-04  2.806938e-07  6.174614e-07   0.002746  0.002746  0.002746    0.999212       -0.048210  0.999500     -0.036124         0.179479
33  -0.062324 -3.395973e-03  0.062540  3.870405e-03  2.156735e-04  4.744320e-04   0.090478  0.090478  0.090478    0.995709       -0.458217  0.999584     -0.035764         5.913627
34  -0.001648  6.864761e-05  0.001648 -6.804883e-05  2.722016e-07  5.987806e-07   0.002382  0.002382  0.002382    0.999062       -0.069388  0.999212     -0.048210         0.155707
35  -0.023300 -1.156711e-03  0.023338  1.240708e-03  3.818435e-05  8.399675e-05   0.034087  0.034087  0.034087    0.987823       -1.348529  0.989621     -1.147501         2.227931
36   0.125315  8.623401e-02 -0.125313 -8.623051e-02  1.594343e-06  3.507187e-06   0.005857  0.005857  0.005857    0.999646       -0.029542  0.999624     -0.030290         0.382818
37   0.027100 -3.070090e-07 -0.027025  1.639266e-04  7.438037e-05  1.636196e-04   0.039404  0.039404  0.039404    0.992661       -0.757332  0.989954     -1.104219         2.575422
38   0.018235 -5.468420e-06 -0.018177  1.336248e-04  5.825902e-05  1.281564e-04   0.026370  0.026370  0.026370    0.998123       -0.251749  0.994961     -0.655762         1.723504
39   0.057864 -3.807251e-02 -0.057863  3.807331e-02  3.640036e-07  8.007239e-07   0.002667  0.002667  0.002667    0.999634       -0.031905  0.999636     -0.032623         0.174315
40   0.004008 -1.286084e-03 -0.004008  1.286086e-03  1.158342e-09  2.548084e-09   0.000162  0.000162  0.000162    0.999636       -0.032623  0.999636     -0.032661         0.010594
41  -0.016157 -7.013433e-16  0.016176  4.219566e-05  1.918186e-05  4.219566e-05   0.023459  0.023459  0.023459    0.994117       -0.686848  0.995301     -0.537393         1.533261
42  -0.030171  2.315341e-02  0.030172 -2.315304e-02  1.704616e-07  3.749761e-07   0.001464  0.001464  0.001464    0.999578       -0.037202  0.999575     -0.036598         0.095716
43   0.006686 -1.914575e-06 -0.006681  1.479335e-05  5.854604e-06  1.287878e-05   0.009673  0.009673  0.009673    0.997709       -0.475483  0.996838     -0.585951         0.632238
44   0.016157  1.220831e-02 -0.016157 -1.220824e-02  3.076260e-08  6.767062e-08   0.000780  0.000780  0.000780    0.999891       -0.051645  0.999888     -0.051746         0.050950
45  -0.033834 -2.606754e-03  0.033834  2.606791e-03  1.749145e-08  3.692638e-08   0.001306  0.001306  0.001306    0.999886       -0.053891  0.999887     -0.053831         0.043543
46  -0.046844 -3.037954e-03  0.046929  3.224332e-03  8.472593e-05  1.863775e-04   0.067919  0.067919  0.067919    0.997594       -0.245270  0.999655     -0.025409         4.439139
47   0.733413  1.231384e-01 -0.733260 -1.228012e-01  1.532871e-04  3.371961e-04   0.028624  0.028624  0.028624    0.999995        0.000026  0.999717     -0.023645         1.870871
48  -0.013849  8.077306e-17  0.013875  5.668542e-05  2.576880e-05  5.668542e-05   0.020294  0.020294  0.020294    0.984981       -1.962647  0.986822     -1.728567         1.326414
49  -0.030295  5.418426e-03  0.030295 -5.418232e-03  8.785689e-08  1.932649e-07   0.001185  0.001185  0.001185    0.999636       -0.033185  0.999637     -0.032802         0.077450
50   0.000926 -3.781590e-04 -0.000926  3.783517e-04  8.760258e-08  1.927054e-07   0.001446  0.001446  0.001446    0.998304       -0.444636  0.998295     -0.456753         0.094516
51   0.316888 -1.019561e-01 -0.316763  1.022312e-01  1.250573e-04  2.750972e-04   0.012813  0.012813  0.012813    0.999995        0.000026  0.999891     -0.051645         0.837440
52  -0.033770 -1.487592e-03  0.033824  1.607033e-03  5.429696e-05  1.194408e-04   0.048881  0.048881  0.048881    0.998123       -0.251749  0.999886     -0.053890         3.194855
53  -0.072214  4.980851e-03  0.072531 -4.284339e-03  3.166295e-04  6.965118e-04   0.104904  0.104904  0.104904    0.995955       -0.591499  0.999691     -0.026357         6.856467
54  -0.015580 -1.513899e-15  0.015594  2.997842e-05  1.420030e-05  2.997842e-05   0.022602  0.022602  0.022602    0.994971       -0.751459  0.995880     -0.641315         0.753389
55  -0.037147  6.038526e-08  0.037271  2.726643e-04  1.239788e-04  2.727247e-04   0.053791  0.053791  0.053791    0.996749       -0.535552  1.000103     -0.116301         3.515770
56  -0.036981  7.135457e-03  0.037104 -6.864309e-03  1.232618e-04  2.711474e-04   0.054487  0.054487  0.054487    0.997709       -0.475483  0.999584     -0.035764         3.561250
57  -0.060747  6.297819e-02  0.060748 -6.297700e-02  5.437764e-07  1.196182e-06   0.003369  0.003369  0.003369    0.999634       -0.031905  0.999629     -0.031105         0.220206
--------------------------------------------------

RES_TRAFO:
        p_hv_mw     q_hv_mvar   p_lv_mw  q_lv_mvar    pl_mw   ql_mvar       i_hv_ka   i_lv_ka  vm_hv_pu  va_hv_degree  vm_lv_pu  va_lv_degree  loading_percent
0 -1.452468e-11  1.875578e-11  0.000010   0.000998  0.00001  0.000998  9.137899e-13  0.001442  0.999212     -0.048209  0.999212     -0.048210         0.009992
1  4.930241e-02  4.866809e-03 -0.049292  -0.003868  0.00001  0.000999  1.907532e-03  0.071391  0.999655     -0.025411  0.999655     -0.025409         0.495591
2  1.038604e-01 -1.078629e-02 -0.103850   0.011786  0.00001  0.000999  4.020330e-03  0.150904  0.999692     -0.026350  0.999691     -0.026357         1.045493
3  6.594045e-02 -3.881068e-02 -0.065930   0.039810  0.00001  0.001000  2.945351e-03  0.111177  0.999891     -0.051645  0.999890     -0.051668         0.770259
4  3.383392e-02  2.606754e-03 -0.033824  -0.001607  0.00001  0.001000  1.306277e-03  0.048881  0.999886     -0.053891  0.999886     -0.053890         0.339381
5  1.178538e-01 -9.346138e-04 -0.117844   0.001934  0.00001  0.000999  4.538221e-03  0.170186  0.999585     -0.035763  0.999584     -0.035764         1.179086
6  9.566980e-02  1.020474e-02 -0.095660  -0.009205  0.00001  0.000999  3.704270e-03  0.138750  0.999717     -0.023645  0.999716     -0.023639         0.962398
7  1.977777e+00  1.862517e-01 -1.977757  -0.182252  0.00002  0.004000  1.638460e-02  0.076447  1.000000      0.000000  0.999995      0.000026         4.966318
--------------------------------------------------

RES_EXT_GRID:
       p_mw    q_mvar
0  1.977777  0.186252
--------------------------------------------------

RES_LOAD:
          p_mw        q_mvar
0     0.000000  0.000000e+00
1     0.000000  0.000000e+00
2     0.000000  0.000000e+00
3     0.000000  0.000000e+00
4     0.000000  0.000000e+00
5     0.000000  0.000000e+00
6     0.000000  0.000000e+00
7     0.000000  0.000000e+00
8     0.000000  0.000000e+00
9     0.000000  0.000000e+00
10    0.000000  0.000000e+00
11    0.000000  0.000000e+00
12    0.000000  0.000000e+00
13    0.000000  0.000000e+00
14    0.000000  0.000000e+00
15    0.000000  0.000000e+00
16    0.000000  0.000000e+00
17    0.000000  0.000000e+00
18    0.000000  0.000000e+00
19    0.000000  0.000000e+00
20    0.000000  0.000000e+00
21    0.000000  0.000000e+00
22    0.000000  0.000000e+00
23    0.126879  1.178780e-02
24    0.000000  0.000000e+00
25    0.000000  0.000000e+00
26    0.000000  0.000000e+00
27    0.000000  0.000000e+00
28    0.000000  0.000000e+00
29    0.000000  0.000000e+00
30    0.000000  0.000000e+00
31    0.000000  0.000000e+00
32    0.000000  0.000000e+00
33    0.000000  0.000000e+00
34    0.000000  0.000000e+00
35    0.000000  0.000000e+00
36    0.000000  0.000000e+00
37    0.000000  0.000000e+00
38    0.000000  0.000000e+00
39    0.000000  0.000000e+00
40    0.000000  0.000000e+00
41    0.000000  0.000000e+00
42    0.000000  0.000000e+00
43    0.000000  0.000000e+00
44    0.000000  0.000000e+00
45    0.000000  0.000000e+00
46    0.000000  0.000000e+00
47    0.125313  8.623051e-02
48    0.000000 -0.000000e+00
49    0.000000 -0.000000e+00
50    0.000000 -0.000000e+00
51    0.000000 -0.000000e+00
52    0.000000 -0.000000e+00
53    0.000000 -0.000000e+00
54    0.000000 -0.000000e+00
55    0.000000 -0.000000e+00
56    0.000000 -0.000000e+00
57    0.000000 -0.000000e+00
58    0.000000 -0.000000e+00
59    0.000000 -0.000000e+00
60    0.000000 -0.000000e+00
61    0.000000 -0.000000e+00
62    0.000000 -0.000000e+00
63    0.000000 -0.000000e+00
64    0.000000 -0.000000e+00
65    0.000000 -0.000000e+00
66    0.000000 -0.000000e+00
67    0.000000 -0.000000e+00
68    0.000000 -0.000000e+00
69    0.000000 -0.000000e+00
70    0.000000 -0.000000e+00
71    0.002526 -1.395146e-06
72    0.000000  0.000000e+00
73    0.000000  0.000000e+00
74    0.000000  0.000000e+00
75    0.000000  0.000000e+00
76    0.000000  0.000000e+00
77    0.000000  0.000000e+00
78    0.000000  0.000000e+00
79    0.000000  0.000000e+00
80    0.000000  0.000000e+00
81    0.000000 -0.000000e+00
82    0.000000 -0.000000e+00
83    0.000000 -0.000000e+00
84    0.000000 -0.000000e+00
85    0.000000 -0.000000e+00
86    0.000000 -0.000000e+00
87    0.000000 -0.000000e+00
88    0.000000  0.000000e+00
89    0.000000  0.000000e+00
90    0.000000  0.000000e+00
91    0.000000  0.000000e+00
92    0.000000  0.000000e+00
93    0.000000  0.000000e+00
94    0.000000  0.000000e+00
95    0.020774  1.157158e-03
96    0.000000  0.000000e+00
97    0.000000  0.000000e+00
98    0.000000  0.000000e+00
99    0.000000  0.000000e+00
100   0.000000  0.000000e+00
101   0.000000  0.000000e+00
102   0.000000  0.000000e+00
103   0.000000  0.000000e+00
104   0.000000  0.000000e+00
105   0.000000  0.000000e+00
106   0.000000  0.000000e+00
107   0.000000  0.000000e+00
108   0.000000  0.000000e+00
109   0.000000  0.000000e+00
110   0.000000  0.000000e+00
111   0.000000  0.000000e+00
112   0.000000  0.000000e+00
113   0.000000  0.000000e+00
114   0.000000  0.000000e+00
115   0.000000  0.000000e+00
116   0.000000  0.000000e+00
117   0.000000  0.000000e+00
118   0.000000  0.000000e+00
119   0.006925  1.648233e-03
120   0.000000 -0.000000e+00
121   0.000000 -0.000000e+00
122   0.000000 -0.000000e+00
123   0.000000 -0.000000e+00
124   0.000000 -0.000000e+00
125   0.000000 -0.000000e+00
126   0.000000  0.000000e+00
127   0.000000  0.000000e+00
128   0.000000  0.000000e+00
129   0.000000  0.000000e+00
130   0.000000  0.000000e+00
131   0.000000  0.000000e+00
132   0.000000  0.000000e+00
133   0.000000  0.000000e+00
134   0.000000  0.000000e+00
135   0.000000  0.000000e+00
136   0.000000  0.000000e+00
137   0.000000 -0.000000e+00
138   0.000000 -0.000000e+00
139   0.000000 -0.000000e+00
140   0.000000 -0.000000e+00
141   0.000000 -0.000000e+00
142   0.000000 -0.000000e+00
143   0.042413 -1.151579e-02
144   0.000000 -0.000000e+00
145   0.000000 -0.000000e+00
146   0.000000 -0.000000e+00
147   0.000000 -0.000000e+00
148   0.000000 -0.000000e+00
149   0.000000 -0.000000e+00
150   0.000000 -0.000000e+00
151   0.000000 -0.000000e+00
152   0.000000 -0.000000e+00
153   0.000000 -0.000000e+00
154   0.000000  0.000000e+00
155   0.000000  0.000000e+00
156   0.000000 -0.000000e+00
157   0.000000 -0.000000e+00
158   0.000000 -0.000000e+00
159   0.000000 -0.000000e+00
160   0.000000 -0.000000e+00
161   0.000000 -0.000000e+00
162   0.000000 -0.000000e+00
163   0.000000 -0.000000e+00
164   0.000000 -0.000000e+00
165   0.000000 -0.000000e+00
166   0.000000 -0.000000e+00
167   0.003486 -1.424535e-03
168   0.000000  0.000000e+00
169   0.000000  0.000000e+00
170   0.000000  0.000000e+00
171   0.000000  0.000000e+00
172   0.000000  0.000000e+00
173   0.000000  0.000000e+00
174   0.000000  0.000000e+00
175   0.000000  0.000000e+00
176   0.000000  0.000000e+00
177   0.000000 -0.000000e+00
178   0.000000 -0.000000e+00
179   0.000000 -0.000000e+00
180   0.000000  0.000000e+00
181   0.000000  0.000000e+00
182   0.000000  0.000000e+00
183   0.000000  0.000000e+00
184   0.000000  0.000000e+00
185   0.000000  0.000000e+00
186   0.000000  0.000000e+00
187   0.000000  0.000000e+00
188   0.000000  0.000000e+00
189   0.000000  0.000000e+00
190   0.000000  0.000000e+00
191   0.034189  6.372303e-03
...